137

V       4.554599999999999      0.000000000000000      2.852800000000002
V       4.554599999999999      0.000000000000000      0.000000000000000
V       4.554599999999999      0.000000000000000     -2.852799999999998
V       0.000000000000000      4.554599999999999      2.852800000000002
V       0.000000000000000      4.554599999999999      0.000000000000000
V       0.000000000000000      4.554599999999999     -2.852799999999998
V       0.000000000000000      0.000000000000000      5.705600000000000
V       0.000000000000000      0.000000000000000      2.852800000000002
V       2.277300000000002      2.277300000000002      4.279200000000001
V       0.000000000000000      0.000000000000000      0.000000000000000
V       2.277300000000002      2.277300000000002      1.426399999999999
V       0.000000000000000      0.000000000000000     -2.852799999999998
V       2.277300000000002      2.277300000000002     -1.426399999999999
V       0.000000000000000      0.000000000000000     -5.705599999999998
V       2.277300000000002      2.277300000000002     -4.279199999999998
V       0.000000000000000     -4.554599999999999      2.852800000000002
V       2.277300000000002     -2.277299999999997      4.279200000000001
V       0.000000000000000     -4.554599999999999      0.000000000000000
V       2.277300000000002     -2.277299999999997      1.426399999999999
V       0.000000000000000     -4.554599999999999     -2.852799999999998
V       2.277300000000002     -2.277299999999997     -1.426399999999999
V       2.277300000000002     -2.277299999999997     -4.279199999999998
V      -4.554599999999999      0.000000000000000      2.852800000000002
V      -2.277299999999997      2.277300000000002      4.279200000000001
V      -4.554599999999999      0.000000000000000      0.000000000000000
V      -2.277299999999997      2.277300000000002      1.426399999999999
V      -4.554599999999999      0.000000000000000     -2.852799999999998
V      -2.277299999999997      2.277300000000002     -1.426399999999999
V      -2.277299999999997      2.277300000000002     -4.279199999999998
V      -2.277299999999997     -2.277299999999997      4.279200000000001
V      -2.277299999999997     -2.277299999999997      1.426399999999999
V      -2.277299999999997     -2.277299999999997     -1.426399999999999
V      -2.277299999999997     -2.277299999999997     -4.279199999999998
O       5.921435460000000      1.366835460000003      2.852800000000002
O       5.921435460000000      1.366835460000003      0.000000000000000
O       5.921435460000000      1.366835460000003     -2.852799999999998
O       5.465064539999998     -0.910464539999998      4.279200000000001
O       5.465064539999998     -0.910464539999998      1.426399999999999
O       5.465064539999998     -0.910464539999998     -1.426399999999999
O       5.465064539999998     -0.910464539999998     -4.279199999999998
O       1.366835460000003      5.921435460000000      2.852800000000002
O       1.366835460000003      5.921435460000000      0.000000000000000
O       1.366835460000003      5.921435460000000     -2.852799999999998
O       3.187764540000002      3.187764540000002      5.705600000000000
O       1.366835460000003      1.366835460000003      5.705600000000000
O       3.187764540000002      3.187764540000002      2.852800000000002
O       1.366835460000003      1.366835460000003      2.852800000000002
O       3.644135460000003      0.910464540000001      4.279200000000001
O       0.910464540000001      3.644135460000003      4.279200000000001
O       3.187764540000002      3.187764540000002      0.000000000000000
O       1.366835460000003      1.366835460000003      0.000000000000000
O       3.644135460000003      0.910464540000001      1.426399999999999
O       0.910464540000001      3.644135460000003      1.426399999999999
O       3.187764540000002      3.187764540000002     -2.852799999999998
O       1.366835460000003      1.366835460000003     -2.852799999999998
O       3.644135460000003      0.910464540000001     -1.426399999999999
O       0.910464540000001      3.644135460000003     -1.426399999999999
O       3.187764540000002      3.187764540000002     -5.705599999999998
O       1.366835460000003      1.366835460000003     -5.705599999999998
O       3.644135460000003      0.910464540000001     -4.279199999999998
O       0.910464540000001      3.644135460000003     -4.279199999999998
O       3.187764540000002     -1.366835459999997      5.705600000000000
O       1.366835460000003     -3.187764539999996      5.705600000000000
O       0.910464540000001     -0.910464539999998      7.132000000000001
O       3.187764540000002     -1.366835459999997      2.852800000000002
O       1.366835460000003     -3.187764539999996      2.852800000000002
O       3.644135460000003     -3.644135459999999      4.279200000000001
O       0.910464540000001     -0.910464539999998      4.279200000000001
O       3.187764540000002     -1.366835459999997      0.000000000000000
O       1.366835460000003     -3.187764539999996      0.000000000000000
O       3.644135460000003     -3.644135459999999      1.426399999999999
O       0.910464540000001     -0.910464539999998      1.426399999999999
O       3.187764540000002     -1.366835459999997     -2.852799999999998
O       1.366835460000003     -3.187764539999996     -2.852799999999998
O       3.644135460000003     -3.644135459999999     -1.426399999999999
O       0.910464540000001     -0.910464539999998     -1.426399999999999
O       3.187764540000002     -1.366835459999997     -5.705599999999998
O       1.366835460000003     -3.187764539999996     -5.705599999999998
O       3.644135460000003     -3.644135459999999     -4.279199999999998
O       0.910464540000001     -0.910464539999998     -4.279199999999998
O       0.910464540000001     -0.910464539999998     -7.131999999999998
O       0.910464540000001     -5.465064539999998      4.279200000000001
O       0.910464540000001     -5.465064539999998      1.426399999999999
O       0.910464540000001     -5.465064539999998     -1.426399999999999
O       0.910464540000001     -5.465064539999998     -4.279199999999998
O      -0.910464539999998      5.465064539999998      4.279200000000001
O      -0.910464539999998      5.465064539999998      1.426399999999999
O      -0.910464539999998      5.465064539999998     -1.426399999999999
O      -0.910464539999998      5.465064539999998     -4.279199999999998
O      -1.366835459999997      3.187764540000002      5.705600000000000
O      -3.187764539999996      1.366835460000003      5.705600000000000
O      -0.910464539999998      0.910464540000001      7.132000000000001
O      -1.366835459999997      3.187764540000002      2.852800000000002
O      -3.187764539999996      1.366835460000003      2.852800000000002
O      -0.910464539999998      0.910464540000001      4.279200000000001
O      -3.644135459999999      3.644135460000003      4.279200000000001
O      -1.366835459999997      3.187764540000002      0.000000000000000
O      -3.187764539999996      1.366835460000003      0.000000000000000
O      -0.910464539999998      0.910464540000001      1.426399999999999
O      -3.644135459999999      3.644135460000003      1.426399999999999
O      -1.366835459999997      3.187764540000002     -2.852799999999998
O      -3.187764539999996      1.366835460000003     -2.852799999999998
O      -0.910464539999998      0.910464540000001     -1.426399999999999
O      -3.644135459999999      3.644135460000003     -1.426399999999999
O      -1.366835459999997      3.187764540000002     -5.705599999999998
O      -3.187764539999996      1.366835460000003     -5.705599999999998
O      -0.910464539999998      0.910464540000001     -4.279199999999998
O      -3.644135459999999      3.644135460000003     -4.279199999999998
O      -0.910464539999998      0.910464540000001     -7.131999999999998
O      -1.366835459999997     -1.366835459999997      5.705600000000000
O      -3.187764539999996     -3.187764539999996      5.705600000000000
O      -1.366835459999997     -1.366835459999997      2.852800000000002
O      -3.187764539999996     -3.187764539999996      2.852800000000002
O      -0.910464539999998     -3.644135459999999      4.279200000000001
O      -3.644135459999999     -0.910464539999998      4.279200000000001
O      -1.366835459999997     -1.366835459999997      0.000000000000000
O      -3.187764539999996     -3.187764539999996      0.000000000000000
O      -0.910464539999998     -3.644135459999999      1.426399999999999
O      -3.644135459999999     -0.910464539999998      1.426399999999999
O      -1.366835459999997     -1.366835459999997     -2.852799999999998
O      -3.187764539999996     -3.187764539999996     -2.852799999999998
O      -0.910464539999998     -3.644135459999999     -1.426399999999999
O      -3.644135459999999     -0.910464539999998     -1.426399999999999
O      -1.366835459999997     -1.366835459999997     -5.705599999999998
O      -3.187764539999996     -3.187764539999996     -5.705599999999998
O      -0.910464539999998     -3.644135459999999     -4.279199999999998
O      -3.644135459999999     -0.910464539999998     -4.279199999999998
O      -1.366835459999997     -5.921435459999998      2.852800000000002
O      -1.366835459999997     -5.921435459999998      0.000000000000000
O      -1.366835459999997     -5.921435459999998     -2.852799999999998
O      -5.465064539999998      0.910464540000001      4.279200000000001
O      -5.465064539999998      0.910464540000001      1.426399999999999
O      -5.465064539999998      0.910464540000001     -1.426399999999999
O      -5.465064539999998      0.910464540000001     -4.279199999999998
O      -5.921435459999998     -1.366835459999997      2.852800000000002
O      -5.921435459999998     -1.366835459999997      0.000000000000000
O      -5.921435459999998     -1.366835459999997     -2.852799999999998
